Version 4
SHEET 1 1024 680
WIRE 336 -112 256 -112
WIRE 336 -64 336 -112
WIRE 480 -64 464 -64
WIRE 576 -64 544 -64
WIRE 656 -16 640 -16
WIRE 784 -16 736 -16
WIRE 784 16 784 -16
WIRE 336 32 336 16
WIRE 400 32 336 32
WIRE 432 32 400 32
WIRE 464 32 464 -64
WIRE 464 32 432 32
WIRE 480 32 464 32
WIRE 576 32 576 -64
WIRE 576 32 560 32
WIRE 720 32 576 32
WIRE 400 48 400 32
WIRE 944 64 944 32
WIRE 400 112 336 112
WIRE 640 112 592 112
WIRE 256 128 256 -112
WIRE 336 128 336 112
WIRE 432 128 432 32
WIRE 432 128 416 128
WIRE 432 144 432 128
WIRE 464 144 432 144
WIRE 720 160 720 32
WIRE 720 160 592 160
WIRE 944 160 944 144
WIRE 944 160 720 160
WIRE 464 176 432 176
WIRE 432 192 432 176
WIRE 432 192 416 192
WIRE 608 208 592 208
WIRE 256 240 256 208
WIRE 336 240 256 240
WIRE 336 256 336 240
WIRE 608 256 608 208
WIRE 256 272 256 240
WIRE 944 272 944 240
WIRE 400 336 336 336
WIRE 432 336 432 192
WIRE 432 336 400 336
WIRE 336 352 336 336
WIRE 400 352 400 336
WIRE 256 384 256 336
WIRE 400 432 400 416
WIRE 400 432 336 432
WIRE 336 448 336 432
FLAG 784 16 0
FLAG 608 256 0
FLAG 640 -16 +SOL
FLAG 640 112 +SOL
FLAG 336 -112 +SOL
FLAG 944 32 +SOL
FLAG 944 272 0
FLAG 336 128 0
FLAG 336 448 0
FLAG 256 384 0
FLAG 432 32 IN+
FLAG 432 336 IN-
SYMBOL voltage 640 -16 R270
WINDOW 0 32 56 VTop 2
WINDOW 3 -32 56 VBottom 2
WINDOW 123 0 0 Left 0
WINDOW 39 0 0 Left 0
SYMATTR InstName V1
SYMATTR Value SINE(18 18 0.001 0 0 -90)
SYMBOL AutoGenerated\\LM2903B 528 160 R0
SYMATTR InstName U2
SYMBOL res 320 -80 R0
SYMATTR InstName R1
SYMATTR Value 91k
SYMBOL res 320 16 R0
SYMATTR InstName R2
SYMATTR Value 130k
SYMBOL res 928 48 R0
SYMATTR InstName R3
SYMATTR Value 68k
SYMBOL res 928 144 R0
SYMATTR InstName R4
SYMATTR Value 33k
SYMBOL res 576 16 R90
WINDOW 0 0 56 VBottom 2
WINDOW 3 32 56 VTop 2
SYMATTR InstName R5
SYMATTR Value 220k
SYMBOL zener 272 336 R180
WINDOW 0 24 64 Left 2
WINDOW 3 24 0 Left 2
SYMATTR InstName D1
SYMATTR Value EDZV15B
SYMBOL res 240 112 R0
SYMATTR InstName R6
SYMATTR Value 2k
SYMBOL res 320 240 R0
SYMATTR InstName R7
SYMATTR Value 33k
SYMBOL res 320 336 R0
SYMATTR InstName R8
SYMATTR Value 47k
SYMBOL cap 480 -48 R270
WINDOW 0 32 32 VTop 2
WINDOW 3 0 32 VBottom 2
SYMATTR InstName C1
SYMATTR Value 0.001p
SYMATTR SpiceLine Rser=0.5
SYMBOL cap 384 48 R0
SYMATTR InstName C2
SYMATTR Value 100n
SYMATTR SpiceLine Rser=0.5
SYMBOL cap 384 352 R0
SYMATTR InstName C3
SYMATTR Value 100n
SYMATTR SpiceLine Rser=0.5
TEXT 8 248 Left 2 !.tran 0 1000 0 1s
