Version 4
SHEET 1 1024 680
WIRE 336 -192 336 -224
WIRE 656 -16 640 -16
WIRE 784 -16 736 -16
WIRE 784 16 784 -16
WIRE 336 32 336 -112
WIRE 432 32 336 32
WIRE 480 32 432 32
WIRE 720 32 560 32
WIRE 944 64 944 32
WIRE 640 112 592 112
WIRE 336 128 336 112
WIRE 432 144 432 32
WIRE 464 144 432 144
WIRE 720 160 720 32
WIRE 720 160 592 160
WIRE 944 160 944 144
WIRE 944 160 720 160
WIRE 272 176 272 144
WIRE 464 176 432 176
WIRE 608 208 592 208
WIRE 608 256 608 208
WIRE 944 272 944 240
WIRE 272 336 272 256
WIRE 336 336 272 336
WIRE 432 336 432 176
WIRE 432 336 336 336
WIRE 336 352 336 336
WIRE 272 400 272 336
WIRE 272 496 272 480
FLAG 784 16 0
FLAG 608 256 0
FLAG 640 -16 +SOL
FLAG 640 112 +SOL
FLAG 336 -224 +SOL
FLAG 944 32 +SOL
FLAG 944 272 0
FLAG 336 128 0
FLAG 432 32 IN+
FLAG 432 336 IN-
FLAG 272 144 +SOL
FLAG 272 496 0
SYMBOL voltage 640 -16 R270
WINDOW 0 32 56 VTop 2
WINDOW 3 -32 56 VBottom 2
WINDOW 123 0 0 Left 0
WINDOW 39 0 0 Left 0
SYMATTR InstName V1
SYMATTR Value SINE(18 18 10)
SYMBOL AutoGenerated\\LM2903B 528 160 R0
SYMATTR InstName U2
SYMBOL res 320 16 R0
SYMATTR InstName R2
SYMATTR Value 10k
SYMBOL res 928 48 R0
SYMATTR InstName R3
SYMATTR Value 68k
SYMBOL res 928 144 R0
SYMATTR InstName R4
SYMATTR Value 33k
SYMBOL res 576 16 R90
WINDOW 0 0 56 VBottom 2
WINDOW 3 32 56 VTop 2
SYMATTR InstName R5
SYMATTR Value 220k
SYMBOL res 320 -208 R0
SYMATTR InstName R6
SYMATTR Value 7.3k
SYMBOL res 256 384 R0
SYMATTR InstName R1
SYMATTR Value 91k
SYMBOL res 256 160 R0
SYMATTR InstName R7
SYMATTR Value 68k
TEXT 8 248 Left 2 !.tran 0 0.1s 0 0.01s
